Alpine_pvPen_35test.dss
Clear

New Circuit.Alpine_pvPen_35 bus1=SourceBus basekv=12 pu=1 MVAsc3=20000 MVAsc1=21000
New Transformer.355_1686B Buses=[03551328.1 03551328A.1] Conns=[wye wye] %Noloadloss=0 Phases=1 Windings=2 %imag=0 kVAs=[20000  20000] kVs=[12  12]
New Transformer.ALPINE Buses=[SourceBus 0355] Conns=[wye wye] %Noloadloss=0 Phases=3 Windings=2 %imag=0 kVAs=[20000  20000] kVs=[12  12] sub=y


! Let DSS estimate the voltage bases
Set voltagebases=[12 12]
Calcvoltagebases     ! This also establishes the bus list

Buscoords Alpine_pvPen_35test_buscoords.csv


set maxiterations=1000
